Circuit: * C:\GitHub\SideProjects\SoundBea\UltrasoundBeam\SignalConditioning.asc

Limiting rise time of source v1 to 1.25e-006
Limiting fall time of source v1 to 1.25e-006
Early termination of direct N-R iteration.
Direct Newton iteration failed to find .op point.  (Use ".option noopiter" to skip.)
Starting Gmin stepping
Gmin = 10
vernier = 0.5
Gmin = 1.86414
vernier = 0.25
vernier = 0.125
vernier = 0.0625
vernier = 0.03125
vernier = 0.015625
Gmin = 1.94342
vernier = 0.0078125
vernier = 0.00390625
vernier = 0.00195313
vernier = 0.000976563
vernier = 0.000488281
Gmin = 0
Gmin stepping succeeded in finding the operating point.


Date: Tue Jan 29 13:23:25 2019
Total elapsed time: 31.172 seconds.

tnom = 27
temp = 27
method = modified trap
totiter = 2978615
traniter = 2977073
tranpoints = 927969
accept = 663966
rejected = 264003
matrix size = 63
fillins = 327
solver = Normal
Matrix Compiler1: 23.19 KB object code size  5.9/2.4/[0.9]
Matrix Compiler2:     744 opcodes  2.3/[2.2]/4.9

