Circuit: * C:\GitHub\SideProjects\UltrasoundBeam\SignalConditioning.asc

Limiting rise time of source v1 to 1.25e-006
Limiting fall time of source v1 to 1.25e-006
Early termination of direct N-R iteration.
Direct Newton iteration failed to find .op point.  (Use ".option noopiter" to skip.)
Starting Gmin stepping
Gmin = 10
vernier = 0.5
Gmin = 1.86414
vernier = 0.25
vernier = 0.125
vernier = 0.0625
vernier = 0.03125
vernier = 0.015625
Gmin = 1.94342
vernier = 0.0078125
vernier = 0.00390625
vernier = 0.00195313
vernier = 0.000976563
vernier = 0.000488281
Gmin = 0
Gmin stepping succeeded in finding the operating point.

Heightened Def Con from 0.0115424 to 0.0115424

Date: Sun Jan 27 17:22:50 2019
Total elapsed time: 7.442 seconds.

tnom = 27
temp = 27
method = modified trap
totiter = 354261
traniter = 352719
tranpoints = 110057
accept = 78246
rejected = 31812
matrix size = 61
fillins = 327
solver = Normal
Matrix Compiler1: 23.14 KB object code size  4.8/3.1/[1.2]
Matrix Compiler2: 10.72 KB object code size  3.4/3.4/[3.0]

